opendss/DSSfiles/IEEE_8500_BusUnbal-G/Master.dss
Clear
New Circuit.ieee8500u


Redirect Vsource.dss
Redirect LineCode.dss
Redirect XfmrCode.dss
Redirect LoadShape.dss
Redirect GrowthShape.dss
Redirect TCC_Curve.dss
Redirect Spectrum.dss
Redirect sub\Branches.dss
Redirect sub\Transformers.dss
Redirect sub\Loads.dss
Redirect sub\Capacitors.dss
Redirect EnergyMeter.dss
MakeBusList
Redirect BusVoltageBases.dss  ! set voltage bases
Buscoords BusCoords.dss
GIScoords GISCoords.dss
